# generated using pymatgen
data_CaGe2H9
_symmetry_space_group_name_H-M   'P 1'
_cell_length_a   4.17254200
_cell_length_b   4.64205400
_cell_length_c   5.85532900
_cell_angle_alpha   103.33785500
_cell_angle_beta   106.66468900
_cell_angle_gamma   88.90933200
_symmetry_Int_Tables_number   1
_chemical_formula_structural   CaGe2H9
_chemical_formula_sum   'Ca1 Ge2 H9'
_cell_volume   105.58363095
_cell_formula_units_Z   1
loop_
 _symmetry_equiv_pos_site_id
 _symmetry_equiv_pos_as_xyz
  1  'x, y, z'
loop_
 _atom_site_type_symbol
 _atom_site_label
 _atom_site_symmetry_multiplicity
 _atom_site_fract_x
 _atom_site_fract_y
 _atom_site_fract_z
 _atom_site_occupancy
  Ca  Ca0  1  0.49664123  0.13819181  0.70582849  1
  Ge  Ge1  1  0.69799633  0.55671303  0.41278936  1
  Ge  Ge2  1  0.15194745  0.95915234  0.08440369  1
  H  H3  1  0.40039343  0.23844417  0.31429085  1
  H  H4  1  0.01110600  0.36409433  0.52245813  1
  H  H5  1  0.61806901  0.62455650  0.70995335  1
  H  H6  1  0.30143786  0.74424259  0.31645976  1
  H  H7  1  0.89565058  0.88281768  0.51054498  1
  H  H8  1  0.70550585  0.47848390  0.12268131  1
  H  H9  1  0.08551510  0.21685818  0.90770368  1
  H  H10  1  0.25157423  0.70775542  0.88464912  1
  H  H11  1  0.77155191  0.94778704  0.07535827  1
