# generated using pymatgen
data_SbH3
_symmetry_space_group_name_H-M   'P 1'
_cell_length_a   4.26250900
_cell_length_b   4.91697400
_cell_length_c   5.12931500
_cell_angle_alpha   95.06347100
_cell_angle_beta   89.96119800
_cell_angle_gamma   90.19436000
_symmetry_Int_Tables_number   1
_chemical_formula_structural   SbH3
_chemical_formula_sum   'Sb2 H6'
_cell_volume   107.08334477
_cell_formula_units_Z   2
loop_
 _symmetry_equiv_pos_site_id
 _symmetry_equiv_pos_as_xyz
  1  'x, y, z'
loop_
 _atom_site_type_symbol
 _atom_site_label
 _atom_site_symmetry_multiplicity
 _atom_site_fract_x
 _atom_site_fract_y
 _atom_site_fract_z
 _atom_site_occupancy
  Sb  Sb0  1  0.80242421  0.00016841  0.55388857  1
  Sb  Sb1  1  0.30346305  0.56157775  0.00586759  1
  H  H2  1  0.54253071  0.85277107  0.08184440  1
  H  H3  1  0.03539058  0.08414632  0.83459805  1
  H  H4  1  0.53266963  0.47833354  0.72329244  1
  H  H5  1  0.06334137  0.18758353  0.37229804  1
  H  H6  1  0.56185767  0.37059047  0.18428110  1
  H  H7  1  0.03695278  0.70736090  0.48091980  1
