# generated using pymatgen
data_MgCoCuH42C(SN8)2
_symmetry_space_group_name_H-M   'P 1'
_cell_length_a   6.37296700
_cell_length_b   6.91755400
_cell_length_c   11.75667000
_cell_angle_alpha   88.38772300
_cell_angle_beta   98.72086200
_cell_angle_gamma   91.40939400
_symmetry_Int_Tables_number   1
_chemical_formula_structural   MgCoCuH42C(SN8)2
_chemical_formula_sum   'Mg1 Co1 Cu1 H42 C1 S2 N16'
_cell_volume   511.99343880
_cell_formula_units_Z   1
loop_
 _symmetry_equiv_pos_site_id
 _symmetry_equiv_pos_as_xyz
  1  'x, y, z'
loop_
 _atom_site_type_symbol
 _atom_site_label
 _atom_site_symmetry_multiplicity
 _atom_site_fract_x
 _atom_site_fract_y
 _atom_site_fract_z
 _atom_site_occupancy
  Mg  Mg0  1  0.51229731  0.63634953  0.23537465  1
  Co  Co1  1  0.56581233  0.07654812  0.67550519  1
  Cu  Cu2  1  0.92390901  0.23670571  0.22858674  1
  H  H3  1  0.01798750  0.96287117  0.48918686  1
  H  H4  1  0.34946148  0.75742268  0.66328333  1
  H  H5  1  0.84785860  0.42664187  0.65562742  1
  H  H6  1  0.10236545  0.54220885  0.14547224  1
  H  H7  1  0.94525366  0.01633295  0.64454196  1
  H  H8  1  0.46275955  0.50564155  0.04785846  1
  H  H9  1  0.74272705  0.78399494  0.79500368  1
  H  H10  1  0.97665275  0.82855846  0.01795591  1
  H  H11  1  0.62513858  0.98587197  0.33441062  1
  H  H12  1  0.74018692  0.60771301  0.97335694  1
  H  H13  1  0.38968166  0.52266997  0.66524115  1
  H  H14  1  0.45123777  0.99633779  0.48241086  1
  H  H15  1  0.25924073  0.26813410  0.74600342  1
  H  H16  1  0.82259810  0.11773479  0.04161440  1
  H  H17  1  0.77159602  0.40346121  0.91067625  1
  H  H18  1  0.47911285  0.22994982  0.84247927  1
  H  H19  1  0.25485802  0.44583611  0.35662505  1
  H  H20  1  0.06125326  0.39993140  0.03626105  1
  H  H21  1  0.08292419  0.40586609  0.55081455  1
  H  H22  1  0.17034048  0.67017401  0.37851231  1
  H  H23  1  0.95715933  0.57870466  0.90609785  1
  H  H24  1  0.69345978  0.59802651  0.59281595  1
  H  H25  1  0.97599611  0.33366775  0.42043420  1
  H  H26  1  0.75196598  0.83717381  0.57401830  1
  H  H27  1  0.15953538  0.94318851  0.20748817  1
  H  H28  1  0.14792927  0.01746654  0.03323617  1
  H  H29  1  0.59750576  0.18502616  0.06857711  1
  H  H30  1  0.30426496  0.05468942  0.81423107  1
  H  H31  1  0.52595898  0.22456849  0.46967543  1
  H  H32  1  0.41233583  0.60568465  0.42969212  1
  H  H33  1  0.81084231  0.88241330  0.28350931  1
  H  H34  1  0.22161599  0.61469124  0.74460046  1
  H  H35  1  0.07739789  0.74080890  0.53713276  1
  H  H36  1  0.69458963  0.53087291  0.73182540  1
  H  H37  1  0.60550384  0.00217741  0.98177858  1
  H  H38  1  0.77215387  0.60393253  0.43203064  1
  H  H39  1  0.30730694  0.11313085  0.28031579  1
  H  H40  1  0.25898209  0.35365357  0.14451107  1
  H  H41  1  0.86268480  0.27047339  0.53013030  1
  H  H42  1  0.28541349  0.17309327  0.50567025  1
  H  H43  1  0.89518031  0.98799346  0.82158883  1
  H  H44  1  0.13744335  0.96809962  0.34487106  1
  C  C45  1  0.77425430  0.76392008  0.44470159  1
  S  S46  1  0.61239395  0.30319365  0.26307345  1
  S  S47  1  0.31052160  0.76358439  0.96035685  1
  N  N48  1  0.44221487  0.13079420  0.51761879  1
  N  N49  1  0.15828900  0.04465231  0.27060304  1
  N  N50  1  0.68527253  0.84916697  0.32902731  1
  N  N51  1  0.01099092  0.28874753  0.50600328  1
  N  N52  1  0.27077791  0.62248350  0.66492052  1
  N  N53  1  0.37506960  0.17003504  0.77566198  1
  N  N54  1  0.00495078  0.81942965  0.46515045  1
  N  N55  1  0.10335745  0.39885754  0.12414097  1
  N  N56  1  0.79631028  0.55147285  0.90304094  1
  N  N57  1  0.48863504  0.65295379  0.05787427  1
  N  N58  1  0.13475881  0.86888822  0.03921884  1
  N  N59  1  0.67002340  0.13794480  0.00083560  1
  N  N60  1  0.29697293  0.59068441  0.35777054  1
  N  N61  1  0.76877721  0.92564809  0.76703630  1
  N  N62  1  0.69836983  0.48121793  0.65040835  1
  N  N63  1  0.80135943  0.94586297  0.65005382  1
