# generated using pymatgen
data_RbCaH2
_symmetry_space_group_name_H-M   'P 1'
_cell_length_a   7.67142800
_cell_length_b   3.59899900
_cell_length_c   7.88336700
_cell_angle_alpha   77.40475900
_cell_angle_beta   119.07770000
_cell_angle_gamma   90.13699500
_symmetry_Int_Tables_number   1
_chemical_formula_structural   RbCaH2
_chemical_formula_sum   'Rb2 Ca2 H4'
_cell_volume   184.27063295
_cell_formula_units_Z   2
loop_
 _symmetry_equiv_pos_site_id
 _symmetry_equiv_pos_as_xyz
  1  'x, y, z'
loop_
 _atom_site_type_symbol
 _atom_site_label
 _atom_site_symmetry_multiplicity
 _atom_site_fract_x
 _atom_site_fract_y
 _atom_site_fract_z
 _atom_site_occupancy
  Rb  Rb0  1  0.96309681  0.87253218  0.90228808  1
  Rb  Rb1  1  0.50051391  0.62340150  0.38148305  1
  Ca  Ca2  1  0.44461675  0.41119092  0.82449646  1
  Ca  Ca3  1  0.01915032  0.08388971  0.45960459  1
  H  H4  1  0.21065802  0.56964753  0.49208084  1
  H  H5  1  0.25318127  0.92526502  0.79223146  1
  H  H6  1  0.54313686  0.97355896  0.69393352  1
  H  H7  1  0.92171208  0.52100518  0.59121300  1
