# generated using pymatgen
data_Ba3Pu
_symmetry_space_group_name_H-M   'P 1'
_cell_length_a   15.85005900
_cell_length_b   16.50414100
_cell_length_c   17.05980900
_cell_angle_alpha   57.93868800
_cell_angle_beta   53.97396000
_cell_angle_gamma   61.14507300
_symmetry_Int_Tables_number   1
_chemical_formula_structural   Ba3Pu
_chemical_formula_sum   'Ba3 Pu1'
_cell_volume   2962.71450875
_cell_formula_units_Z   1
loop_
 _symmetry_equiv_pos_site_id
 _symmetry_equiv_pos_as_xyz
  1  'x, y, z'
loop_
 _atom_site_type_symbol
 _atom_site_label
 _atom_site_symmetry_multiplicity
 _atom_site_fract_x
 _atom_site_fract_y
 _atom_site_fract_z
 _atom_site_occupancy
  Ba  Ba0  1  0.70893689  0.87988234  0.98954692  1
  Ba  Ba1  1  0.45864542  0.63017576  0.73973204  1
  Ba  Ba2  1  0.95987079  0.12670889  0.23896773  1
  Pu  Pu3  1  0.21635091  0.37617302  0.49569631  1
