# generated using pymatgen
data_Th
_symmetry_space_group_name_H-M   'P 1'
_cell_length_a   3.47262800
_cell_length_b   3.47333600
_cell_length_c   5.79766500
_cell_angle_alpha   90.05855300
_cell_angle_beta   90.03358900
_cell_angle_gamma   60.04693900
_symmetry_Int_Tables_number   1
_chemical_formula_structural   Th
_chemical_formula_sum   Th2
_cell_volume   60.58900256
_cell_formula_units_Z   2
loop_
 _symmetry_equiv_pos_site_id
 _symmetry_equiv_pos_as_xyz
  1  'x, y, z'
loop_
 _atom_site_type_symbol
 _atom_site_label
 _atom_site_symmetry_multiplicity
 _atom_site_fract_x
 _atom_site_fract_y
 _atom_site_fract_z
 _atom_site_occupancy
  Th  Th0  1  0.71906571  0.05481069  0.81041154  1
  Th  Th1  1  0.38361329  0.71802931  0.31035146  1
