# generated using pymatgen
data_Yb3In
_symmetry_space_group_name_H-M   'P 1'
_cell_length_a   5.53908100
_cell_length_b   6.10518000
_cell_length_c   14.42989400
_cell_angle_alpha   90.05907100
_cell_angle_beta   90.02336200
_cell_angle_gamma   90.00297500
_symmetry_Int_Tables_number   1
_chemical_formula_structural   Yb3In
_chemical_formula_sum   'Yb12 In4'
_cell_volume   487.97667358
_cell_formula_units_Z   4
loop_
 _symmetry_equiv_pos_site_id
 _symmetry_equiv_pos_as_xyz
  1  'x, y, z'
loop_
 _atom_site_type_symbol
 _atom_site_label
 _atom_site_symmetry_multiplicity
 _atom_site_fract_x
 _atom_site_fract_y
 _atom_site_fract_z
 _atom_site_occupancy
  Yb  Yb0  1  0.53529159  0.68909048  0.63510933  1
  Yb  Yb1  1  0.53482486  0.22941471  0.49507854  1
  Yb  Yb2  1  0.03530724  0.39233388  0.85477445  1
  Yb  Yb3  1  0.03636915  0.92113511  0.99446961  1
  Yb  Yb4  1  0.53526135  0.25335307  0.02611387  1
  Yb  Yb5  1  0.53583327  0.75421237  0.35629185  1
  Yb  Yb6  1  0.53542363  0.18908533  0.74095228  1
  Yb  Yb7  1  0.03636703  0.89435723  0.52567613  1
  Yb  Yb8  1  0.03593177  0.42308992  0.37854917  1
  Yb  Yb9  1  0.53621398  0.72755585  0.87915151  1
  Yb  Yb10  1  0.03541442  0.46358786  0.13533122  1
  Yb  Yb11  1  0.03662850  0.96329303  0.24029705  1
  In  In12  1  0.03542480  0.37923964  0.62389340  1
  In  In13  1  0.53541436  0.26872967  0.25402824  1
  In  In14  1  0.53467354  0.76769999  0.12447507  1
  In  In15  1  0.03579050  0.87812586  0.75397227  1
