# generated using pymatgen
data_Ba2Cu(ClO)2
_symmetry_space_group_name_H-M   'P 1'
_cell_length_a   4.33799900
_cell_length_b   5.76240200
_cell_length_c   7.46721500
_cell_angle_alpha   100.91173400
_cell_angle_beta   89.99673500
_cell_angle_gamma   112.33540000
_symmetry_Int_Tables_number   1
_chemical_formula_structural   Ba2Cu(ClO)2
_chemical_formula_sum   'Ba2 Cu1 Cl2 O2'
_cell_volume   169.00261061
_cell_formula_units_Z   1
loop_
 _symmetry_equiv_pos_site_id
 _symmetry_equiv_pos_as_xyz
  1  'x, y, z'
loop_
 _atom_site_type_symbol
 _atom_site_label
 _atom_site_symmetry_multiplicity
 _atom_site_fract_x
 _atom_site_fract_y
 _atom_site_fract_z
 _atom_site_occupancy
  Ba  Ba0  1  0.28547510  0.76801860  0.72297214  1
  Ba  Ba1  1  0.92219272  0.03835558  0.20084052  1
  Cu  Cu2  1  0.60393061  0.40322035  0.96141619  1
  Cl  Cl3  1  0.98402827  0.16161122  0.62685057  1
  Cl  Cl4  1  0.22296299  0.64365761  0.29625093  1
  O  O5  1  0.46021142  0.11190069  0.03255885  1
  O  O6  1  0.74880688  0.69636195  0.89224079  1
