# generated using pymatgen
data_Ba(FeSe)2
_symmetry_space_group_name_H-M   'P 1'
_cell_length_a   3.80296700
_cell_length_b   3.79940700
_cell_length_c   6.92553900
_cell_angle_alpha   89.98470800
_cell_angle_beta   89.99956100
_cell_angle_gamma   90.04986000
_symmetry_Int_Tables_number   1
_chemical_formula_structural   Ba(FeSe)2
_chemical_formula_sum   'Ba1 Fe2 Se2'
_cell_volume   100.06720619
_cell_formula_units_Z   1
loop_
 _symmetry_equiv_pos_site_id
 _symmetry_equiv_pos_as_xyz
  1  'x, y, z'
loop_
 _atom_site_type_symbol
 _atom_site_label
 _atom_site_symmetry_multiplicity
 _atom_site_fract_x
 _atom_site_fract_y
 _atom_site_fract_z
 _atom_site_occupancy
  Ba  Ba0  1  0.13208950  0.33595422  0.71255241  1
  Fe  Fe1  1  0.63192777  0.33612553  0.21259260  1
  Fe  Fe2  1  0.13206346  0.83611754  0.21258384  1
  Se  Se3  1  0.63286317  0.83560378  0.97484311  1
  Se  Se4  1  0.63283910  0.83590293  0.45004204  1
