# generated using pymatgen
data_K(FeAs)2
_symmetry_space_group_name_H-M   'P 1'
_cell_length_a   3.63938000
_cell_length_b   3.64073800
_cell_length_c   7.34343800
_cell_angle_alpha   104.36236200
_cell_angle_beta   104.33534100
_cell_angle_gamma   89.95372400
_symmetry_Int_Tables_number   1
_chemical_formula_structural   K(FeAs)2
_chemical_formula_sum   'K1 Fe2 As2'
_cell_volume   91.13420014
_cell_formula_units_Z   1
loop_
 _symmetry_equiv_pos_site_id
 _symmetry_equiv_pos_as_xyz
  1  'x, y, z'
loop_
 _atom_site_type_symbol
 _atom_site_label
 _atom_site_symmetry_multiplicity
 _atom_site_fract_x
 _atom_site_fract_y
 _atom_site_fract_z
 _atom_site_occupancy
  K  K0  1  0.47468106  0.87481633  0.41379976  1
  Fe  Fe1  1  0.72541212  0.62499050  0.91441978  1
  Fe  Fe2  1  0.22414224  0.12547977  0.91429806  1
  As  As3  1  0.12094034  0.52077801  0.70443252  1
  As  As4  1  0.82831024  0.22983140  0.12420988  1
