# generated using pymatgen
data_Ba3Ca
_symmetry_space_group_name_H-M   'P 1'
_cell_length_a   4.69018387
_cell_length_b   4.69117856
_cell_length_c   9.31453280
_cell_angle_alpha   90.02942707
_cell_angle_beta   90.06760209
_cell_angle_gamma   89.81619220
_symmetry_Int_Tables_number   1
_chemical_formula_structural   Ba3Ca
_chemical_formula_sum   'Ba3 Ca1'
_cell_volume   204.94169128
_cell_formula_units_Z   1
loop_
 _symmetry_equiv_pos_site_id
 _symmetry_equiv_pos_as_xyz
  1  'x, y, z'
loop_
 _atom_site_type_symbol
 _atom_site_label
 _atom_site_symmetry_multiplicity
 _atom_site_fract_x
 _atom_site_fract_y
 _atom_site_fract_z
 _atom_site_occupancy
  Ba  Ba0  1  0.03062859  0.91064748  0.58400469  1
  Ba  Ba1  1  0.03064773  0.91142490  0.11143017  1
  Ba  Ba2  1  0.53045985  0.41073976  0.84772804  1
  Ca  Ca3  1  0.53070784  0.41096336  0.34768860  1
