# generated using pymatgen
data_Ba2Se
_symmetry_space_group_name_H-M   'P 1'
_cell_length_a   7.67788300
_cell_length_b   7.66303600
_cell_length_c   4.59746000
_cell_angle_alpha   89.98377900
_cell_angle_beta   90.00385100
_cell_angle_gamma   89.99373800
_symmetry_Int_Tables_number   1
_chemical_formula_structural   Ba2Se
_chemical_formula_sum   'Ba4 Se2'
_cell_volume   270.49565539
_cell_formula_units_Z   2
loop_
 _symmetry_equiv_pos_site_id
 _symmetry_equiv_pos_as_xyz
  1  'x, y, z'
loop_
 _atom_site_type_symbol
 _atom_site_label
 _atom_site_symmetry_multiplicity
 _atom_site_fract_x
 _atom_site_fract_y
 _atom_site_fract_z
 _atom_site_occupancy
  Ba  Ba0  1  0.58784869  0.61003000  0.83460907  1
  Ba  Ba1  1  0.99842268  0.19538030  0.83457398  1
  Ba  Ba2  1  0.49880633  0.10928901  0.33448019  1
  Ba  Ba3  1  0.08758675  0.69527870  0.33424603  1
  Se  Se4  1  0.29306312  0.90246578  0.83356739  1
  Se  Se5  1  0.79285242  0.40242621  0.33396935  1
