# generated using pymatgen
data_Ba
_symmetry_space_group_name_H-M   'P 1'
_cell_length_a   4.27936600
_cell_length_b   4.28403500
_cell_length_c   20.95159300
_cell_angle_alpha   90.02244100
_cell_angle_beta   90.00704700
_cell_angle_gamma   59.97072700
_symmetry_Int_Tables_number   1
_chemical_formula_structural   Ba
_chemical_formula_sum   Ba6
_cell_volume   332.54613662
_cell_formula_units_Z   6
loop_
 _symmetry_equiv_pos_site_id
 _symmetry_equiv_pos_as_xyz
  1  'x, y, z'
loop_
 _atom_site_type_symbol
 _atom_site_label
 _atom_site_symmetry_multiplicity
 _atom_site_fract_x
 _atom_site_fract_y
 _atom_site_fract_z
 _atom_site_occupancy
  Ba  Ba0  1  0.41580745  0.39263626  0.02749801  1
  Ba  Ba1  1  0.08232371  0.06026692  0.36153308  1
  Ba  Ba2  1  0.08182141  0.06302594  0.86131946  1
  Ba  Ba3  1  0.74840390  0.72687058  0.19534632  1
  Ba  Ba4  1  0.41538756  0.39303742  0.69534051  1
  Ba  Ba5  1  0.74815097  0.72704888  0.52760063  1
