# generated using pymatgen
data_BaCl2O
_symmetry_space_group_name_H-M   'P 1'
_cell_length_a   5.46625400
_cell_length_b   5.54008900
_cell_length_c   8.92376700
_cell_angle_alpha   106.21292000
_cell_angle_beta   78.58240000
_cell_angle_gamma   67.60732300
_symmetry_Int_Tables_number   1
_chemical_formula_structural   BaCl2O
_chemical_formula_sum   'Ba2 Cl4 O2'
_cell_volume   225.39309135
_cell_formula_units_Z   2
loop_
 _symmetry_equiv_pos_site_id
 _symmetry_equiv_pos_as_xyz
  1  'x, y, z'
loop_
 _atom_site_type_symbol
 _atom_site_label
 _atom_site_symmetry_multiplicity
 _atom_site_fract_x
 _atom_site_fract_y
 _atom_site_fract_z
 _atom_site_occupancy
  Ba  Ba0  1  0.03270891  0.89866068  0.40551239  1
  Ba  Ba1  1  0.93507371  0.48909528  0.90347554  1
  Cl  Cl2  1  0.97263518  0.49772733  0.55960781  1
  Cl  Cl3  1  0.60833533  0.81890230  0.27685025  1
  Cl  Cl4  1  0.58669512  0.23536478  0.75385323  1
  Cl  Cl5  1  0.22729795  0.20545272  0.12561627  1
  O  O6  1  0.14381184  0.88322928  0.87588771  1
  O  O7  1  0.17968796  0.86692963  0.72869280  1
