# generated using pymatgen
data_Ba3CaLa2GdCu7O17
_symmetry_space_group_name_H-M   'P 1'
_cell_length_a   11.24749200
_cell_length_b   3.87279300
_cell_length_c   9.93536600
_cell_angle_alpha   90.54458900
_cell_angle_beta   97.46341800
_cell_angle_gamma   89.20233200
_symmetry_Int_Tables_number   1
_chemical_formula_structural   Ba3CaLa2GdCu7O17
_chemical_formula_sum   'Ba3 Ca1 La2 Gd1 Cu7 O17'
_cell_volume   429.05567859
_cell_formula_units_Z   1
loop_
 _symmetry_equiv_pos_site_id
 _symmetry_equiv_pos_as_xyz
  1  'x, y, z'
loop_
 _atom_site_type_symbol
 _atom_site_label
 _atom_site_symmetry_multiplicity
 _atom_site_fract_x
 _atom_site_fract_y
 _atom_site_fract_z
 _atom_site_occupancy
  Ba  Ba0  1  0.78629887  0.13253875  0.01684304  1
  Ba  Ba1  1  0.13904996  0.10748646  0.18433398  1
  Ba  Ba2  1  0.48599375  0.67292033  0.14970145  1
  Ca  Ca3  1  0.04780276  0.13941271  0.53979160  1
  La  La4  1  0.21597227  0.63046800  0.85179771  1
  La  La5  1  0.58353555  0.61996690  0.70315516  1
  Gd  Gd6  1  0.72569826  0.14612664  0.38582878  1
  Cu  Cu7  1  0.90859673  0.63855883  0.29582791  1
  Cu  Cu8  1  0.84946408  0.64753218  0.60862215  1
  Cu  Cu9  1  0.94845897  0.61968631  0.86038207  1
  Cu  Cu10  1  0.40168034  0.22472803  0.39572915  1
  Cu  Cu11  1  0.34511998  0.12088257  0.65191286  1
  Cu  Cu12  1  0.24058601  0.63500640  0.45255353  1
  Cu  Cu13  1  0.44114791  0.13188390  0.90218490  1
  O  O14  1  0.69670966  0.64969132  0.50845635  1
  O  O15  1  0.31242113  0.54478281  0.27688251  1
  O  O16  1  0.74103113  0.64327499  0.22009587  1
  O  O17  1  0.90466635  0.13839225  0.28287814  1
  O  O18  1  0.59162195  0.12371986  0.85008886  1
  O  O19  1  0.19932194  0.12841070  0.71748891  1
  O  O20  1  0.24744582  0.12708981  0.44346546  1
  O  O21  1  0.43911647  0.63008438  0.88521407  1
  O  O22  1  0.06383040  0.60895113  0.00726865  1
  O  O23  1  0.78334351  0.62587866  0.82848224  1
  O  O24  1  0.48507093  0.10802443  0.56667292  1
  O  O25  1  0.33177664  0.62266159  0.63025508  1
  O  O26  1  0.06316362  0.63306827  0.39002680  1
  O  O27  1  0.30943429  0.13075041  0.99985857  1
  O  O28  1  0.85275270  0.14617187  0.58088664  1
  O  O29  1  0.00742803  0.64155636  0.69100709  1
  O  O30  1  0.53406299  0.18284015  0.30998358  1
