# generated using pymatgen
data_YCu3O7
_symmetry_space_group_name_H-M   'P 1'
_cell_length_a   5.21860400
_cell_length_b   4.85518700
_cell_length_c   5.77947400
_cell_angle_alpha   114.89860600
_cell_angle_beta   117.44470900
_cell_angle_gamma   89.61406300
_symmetry_Int_Tables_number   1
_chemical_formula_structural   YCu3O7
_chemical_formula_sum   'Y1 Cu3 O7'
_cell_volume   114.64138063
_cell_formula_units_Z   1
loop_
 _symmetry_equiv_pos_site_id
 _symmetry_equiv_pos_as_xyz
  1  'x, y, z'
loop_
 _atom_site_type_symbol
 _atom_site_label
 _atom_site_symmetry_multiplicity
 _atom_site_fract_x
 _atom_site_fract_y
 _atom_site_fract_z
 _atom_site_occupancy
  Y  Y0  1  0.16014505  0.19045095  0.04721318  1
  Cu  Cu1  1  0.54989775  0.57142647  0.93685167  1
  Cu  Cu2  1  0.97608564  0.46671834  0.61523148  1
  Cu  Cu3  1  0.47903954  0.93079229  0.57384903  1
  O  O4  1  0.24600400  0.57292923  0.47126840  1
  O  O5  1  0.80181430  0.79076841  0.57123145  1
  O  O6  1  0.69565497  0.21455926  0.21442642  1
  O  O7  1  0.26746918  0.72176226  0.03591478  1
  O  O8  1  0.74574322  0.32403205  0.76455364  1
  O  O9  1  0.80242497  0.95430806  0.10123600  1
  O  O10  1  0.25510838  0.19582469  0.70393296  1
