# generated using pymatgen
data_TbH3
_symmetry_space_group_name_H-M   'P 1'
_cell_length_a   3.77820000
_cell_length_b   4.72675000
_cell_length_c   4.73617300
_cell_angle_alpha   60.06650700
_cell_angle_beta   90.00020800
_cell_angle_gamma   90.00103900
_symmetry_Int_Tables_number   1
_chemical_formula_structural   TbH3
_chemical_formula_sum   'Tb2 H6'
_cell_volume   73.29872603
_cell_formula_units_Z   2
loop_
 _symmetry_equiv_pos_site_id
 _symmetry_equiv_pos_as_xyz
  1  'x, y, z'
loop_
 _atom_site_type_symbol
 _atom_site_label
 _atom_site_symmetry_multiplicity
 _atom_site_fract_x
 _atom_site_fract_y
 _atom_site_fract_z
 _atom_site_occupancy
  Tb  Tb0  1  0.02051245  0.02859232  0.29532491  1
  Tb  Tb1  1  0.52051918  0.36155731  0.62943886  1
  H  H2  1  0.52051588  0.87569477  0.60094001  1
  H  H3  1  0.02050042  0.51447828  0.32374707  1
  H  H4  1  0.02049474  0.05501335  0.78253693  1
  H  H5  1  0.52050078  0.87531516  0.14208855  1
  H  H6  1  0.52053404  0.33507775  0.14230329  1
  H  H7  1  0.02054850  0.51483506  0.78271438  1
